/*--------------------------------*- C++ -*----------------------------------*\
| =========                 |                                                 |
| \\      /  F ield         | OpenFOAM: The Open Source CFD Toolbox           |
|  \\    /   O peration     | Version:  2506                                  |
|   \\  /    A nd           | Website:  www.openfoam.com                      |
|    \\/     M anipulation  |                                                 |
\*---------------------------------------------------------------------------*/
FoamFile
{
    version     2.0;
    format      ascii;
    arch        "LSB;label=32;scalar=64";
    class       volScalarField;
    location    "0/water";
    object      k;
}
// * * * * * * * * * * * * * * * * * * * * * * * * * * * * * * * * * * * * * //

dimensions      [ 0 2 -2 0 0 0 0 ];

internalField   uniform 0.0001;

boundaryField
{
    water_inlet
    {
        type            turbulentIntensityKineticEnergyInlet;
        value           uniform 0.0001;
        intensity       0.05;
    }
    water_outlet
    {
        type            inletOutlet;
        value           uniform 0.0001;
        inletValue      uniform 0.0001;
    }
    water_wedge1
    {
        type            wedge;
        value           uniform 0.0001;
    }
    water_wedge2
    {
        type            wedge;
        value           uniform 0.0001;
    }
    water_to_rock
    {
        type            kqRWallFunction;
        value           uniform 0.0001;
    }
}


// ************************************************************************* //
